* test Inductor and Capacitor models with DC voltage
R1 N001 N002 1k
V1 N001 0 10
L1 N002 0 100m
C1 N002 0 1µ
.tran 0 5ms 0 1us
.backanno
.end
