* test Capacitor model with DC voltage
C1 N002 0 1µ
R1 N001 N002 1k
V1 N001 0 10
.tran 0 5ms 0 1us
.backanno
.end
