* test Inductor model with DC voltage 
R1 N001 N002 1k
V1 N001 0 10
L1 N002 0 100m
.tran 0 4m 0 1u
.backanno
.end
