* test Inductor model with sin voltage
R1 N001 N002 1k
V1 N001 0 SINE(0 10 1k)
C1 N002 0 1u
.tran 0 8ms 0 1us
.backanno
.end
