*
V1 N001 0 SINE(0 10 1k)
R1 N002 N001 100
R2 N003 0 50
C1 N002 N003 1µ
L1 N002 N003 50m
.tran 0 4m 0 1u
.backanno
.end