Version 4
SHEET 1 880 680
WIRE -160 336 -240 336
WIRE 32 336 -96 336
WIRE 160 336 32 336
WIRE 288 336 160 336
WIRE 32 352 32 336
WIRE -240 416 -240 336
WIRE 160 432 160 336
WIRE 32 496 32 432
WIRE -240 592 -240 496
WIRE -144 592 -240 592
WIRE 32 592 32 560
WIRE 32 592 -80 592
WIRE 160 592 160 512
WIRE 160 592 32 592
WIRE 192 592 160 592
WIRE 288 592 288 336
WIRE 288 592 272 592
WIRE -240 624 -240 592
FLAG -240 624 0
SYMBOL voltage -240 400 R0
SYMATTR InstName V1
SYMATTR Value SINE(0 10 1k)
SYMBOL r -160 336 R0
SYMATTR InstName R1
SYMATTR Value 100
SYMBOL r -144 592 R0
SYMATTR InstName R2
SYMATTR Value 50
SYMBOL cap 16 496 R0
SYMATTR InstName C1
SYMATTR Value 1µ
SYMBOL ind 144 416 R0
SYMATTR InstName L1
SYMATTR Value 50m
SYMBOL current 272 592 R90
WINDOW 0 -32 40 VBottom 2
WINDOW 3 32 40 VTop 2
SYMATTR InstName I1
SYMATTR Value 10m
SYMBOL voltage 32 336 R0
SYMATTR InstName V2
SYMATTR Value SINE(0 0.5 5k)
TEXT -24 648 Left 2 !.tran 0 4m 0 1u step
