C1 N002 0 1µ
R1 N001 N002 1k
V1 N001 0 10
.tran 0 5m 0 1u
.backanno
.end
