Version 4
SHEET 1 1128 680
WIRE 224 -8224 64 -8224
WIRE 304 -8224 224 -8224
WIRE 384 -8224 304 -8224
WIRE 464 -8224 384 -8224
WIRE 544 -8224 464 -8224
WIRE 640 -8224 544 -8224
WIRE 720 -8224 640 -8224
WIRE 800 -8224 720 -8224
WIRE 880 -8224 800 -8224
WIRE 960 -8224 880 -8224
WIRE 1040 -8224 960 -8224
WIRE 304 -8144 224 -8144
WIRE 384 -8144 304 -8144
WIRE 464 -8144 384 -8144
WIRE 544 -8144 464 -8144
WIRE 640 -8144 544 -8144
WIRE 720 -8144 640 -8144
WIRE 800 -8144 720 -8144
WIRE 880 -8144 800 -8144
WIRE 960 -8144 880 -8144
WIRE 1040 -8144 1040 -8160
WIRE 1040 -8144 960 -8144
WIRE 224 -8080 224 -8144
WIRE 304 -8080 224 -8080
WIRE 384 -8080 304 -8080
WIRE 464 -8080 384 -8080
WIRE 544 -8080 464 -8080
WIRE 624 -8080 544 -8080
WIRE 720 -8080 624 -8080
WIRE 800 -8080 720 -8080
WIRE 880 -8080 800 -8080
WIRE 960 -8080 880 -8080
WIRE 1040 -8080 1040 -8144
WIRE 1040 -8080 960 -8080
WIRE 224 -8064 224 -8080
WIRE 304 -8000 224 -8000
WIRE 384 -8000 304 -8000
WIRE 464 -8000 384 -8000
WIRE 544 -8000 464 -8000
WIRE 624 -8000 544 -8000
WIRE 720 -8000 624 -8000
WIRE 800 -8000 720 -8000
WIRE 880 -8000 800 -8000
WIRE 960 -8000 880 -8000
WIRE 1040 -8000 960 -8000
WIRE 224 -7952 224 -8000
WIRE 304 -7952 224 -7952
WIRE 384 -7952 304 -7952
WIRE 464 -7952 384 -7952
WIRE 544 -7952 464 -7952
WIRE 640 -7952 544 -7952
WIRE 720 -7952 640 -7952
WIRE 800 -7952 720 -7952
WIRE 880 -7952 800 -7952
WIRE 960 -7952 880 -7952
WIRE 1040 -7952 960 -7952
WIRE 304 -7872 224 -7872
WIRE 384 -7872 304 -7872
WIRE 464 -7872 384 -7872
WIRE 544 -7872 464 -7872
WIRE 640 -7872 544 -7872
WIRE 720 -7872 640 -7872
WIRE 800 -7872 720 -7872
WIRE 880 -7872 800 -7872
WIRE 960 -7872 880 -7872
WIRE 1040 -7872 1040 -7888
WIRE 1040 -7872 960 -7872
WIRE 224 -7808 224 -7872
WIRE 304 -7808 224 -7808
WIRE 384 -7808 304 -7808
WIRE 464 -7808 384 -7808
WIRE 544 -7808 464 -7808
WIRE 624 -7808 544 -7808
WIRE 720 -7808 624 -7808
WIRE 800 -7808 720 -7808
WIRE 880 -7808 800 -7808
WIRE 960 -7808 880 -7808
WIRE 1040 -7808 1040 -7872
WIRE 1040 -7808 960 -7808
WIRE 224 -7792 224 -7808
WIRE 304 -7728 224 -7728
WIRE 384 -7728 304 -7728
WIRE 464 -7728 384 -7728
WIRE 544 -7728 464 -7728
WIRE 624 -7728 544 -7728
WIRE 720 -7728 624 -7728
WIRE 800 -7728 720 -7728
WIRE 880 -7728 800 -7728
WIRE 960 -7728 880 -7728
WIRE 1040 -7728 960 -7728
WIRE 224 -7680 224 -7728
WIRE 304 -7680 224 -7680
WIRE 384 -7680 304 -7680
WIRE 464 -7680 384 -7680
WIRE 544 -7680 464 -7680
WIRE 640 -7680 544 -7680
WIRE 720 -7680 640 -7680
WIRE 800 -7680 720 -7680
WIRE 880 -7680 800 -7680
WIRE 960 -7680 880 -7680
WIRE 1040 -7680 960 -7680
WIRE 304 -7600 224 -7600
WIRE 384 -7600 304 -7600
WIRE 464 -7600 384 -7600
WIRE 544 -7600 464 -7600
WIRE 640 -7600 544 -7600
WIRE 720 -7600 640 -7600
WIRE 800 -7600 720 -7600
WIRE 880 -7600 800 -7600
WIRE 960 -7600 880 -7600
WIRE 1040 -7600 1040 -7616
WIRE 1040 -7600 960 -7600
WIRE 224 -7536 224 -7600
WIRE 304 -7536 224 -7536
WIRE 384 -7536 304 -7536
WIRE 464 -7536 384 -7536
WIRE 544 -7536 464 -7536
WIRE 624 -7536 544 -7536
WIRE 720 -7536 624 -7536
WIRE 800 -7536 720 -7536
WIRE 880 -7536 800 -7536
WIRE 960 -7536 880 -7536
WIRE 1040 -7536 1040 -7600
WIRE 1040 -7536 960 -7536
WIRE 224 -7520 224 -7536
WIRE 304 -7456 224 -7456
WIRE 384 -7456 304 -7456
WIRE 464 -7456 384 -7456
WIRE 544 -7456 464 -7456
WIRE 624 -7456 544 -7456
WIRE 720 -7456 624 -7456
WIRE 800 -7456 720 -7456
WIRE 880 -7456 800 -7456
WIRE 960 -7456 880 -7456
WIRE 1040 -7456 960 -7456
WIRE 224 -7408 224 -7456
WIRE 304 -7408 224 -7408
WIRE 384 -7408 304 -7408
WIRE 464 -7408 384 -7408
WIRE 544 -7408 464 -7408
WIRE 640 -7408 544 -7408
WIRE 720 -7408 640 -7408
WIRE 800 -7408 720 -7408
WIRE 880 -7408 800 -7408
WIRE 960 -7408 880 -7408
WIRE 1040 -7408 960 -7408
WIRE 304 -7328 224 -7328
WIRE 384 -7328 304 -7328
WIRE 464 -7328 384 -7328
WIRE 544 -7328 464 -7328
WIRE 640 -7328 544 -7328
WIRE 720 -7328 640 -7328
WIRE 800 -7328 720 -7328
WIRE 880 -7328 800 -7328
WIRE 960 -7328 880 -7328
WIRE 1040 -7328 1040 -7344
WIRE 1040 -7328 960 -7328
WIRE 224 -7264 224 -7328
WIRE 304 -7264 224 -7264
WIRE 384 -7264 304 -7264
WIRE 464 -7264 384 -7264
WIRE 544 -7264 464 -7264
WIRE 624 -7264 544 -7264
WIRE 720 -7264 624 -7264
WIRE 800 -7264 720 -7264
WIRE 880 -7264 800 -7264
WIRE 960 -7264 880 -7264
WIRE 1040 -7264 1040 -7328
WIRE 1040 -7264 960 -7264
WIRE 224 -7248 224 -7264
WIRE 304 -7184 224 -7184
WIRE 384 -7184 304 -7184
WIRE 464 -7184 384 -7184
WIRE 544 -7184 464 -7184
WIRE 624 -7184 544 -7184
WIRE 720 -7184 624 -7184
WIRE 800 -7184 720 -7184
WIRE 880 -7184 800 -7184
WIRE 960 -7184 880 -7184
WIRE 1040 -7184 960 -7184
WIRE 224 -7136 224 -7184
WIRE 304 -7136 224 -7136
WIRE 384 -7136 304 -7136
WIRE 464 -7136 384 -7136
WIRE 544 -7136 464 -7136
WIRE 640 -7136 544 -7136
WIRE 720 -7136 640 -7136
WIRE 800 -7136 720 -7136
WIRE 880 -7136 800 -7136
WIRE 960 -7136 880 -7136
WIRE 1040 -7136 960 -7136
WIRE 304 -7056 224 -7056
WIRE 384 -7056 304 -7056
WIRE 464 -7056 384 -7056
WIRE 544 -7056 464 -7056
WIRE 640 -7056 544 -7056
WIRE 720 -7056 640 -7056
WIRE 800 -7056 720 -7056
WIRE 880 -7056 800 -7056
WIRE 960 -7056 880 -7056
WIRE 1040 -7056 1040 -7072
WIRE 1040 -7056 960 -7056
WIRE 224 -6992 224 -7056
WIRE 304 -6992 224 -6992
WIRE 384 -6992 304 -6992
WIRE 464 -6992 384 -6992
WIRE 544 -6992 464 -6992
WIRE 624 -6992 544 -6992
WIRE 720 -6992 624 -6992
WIRE 800 -6992 720 -6992
WIRE 880 -6992 800 -6992
WIRE 960 -6992 880 -6992
WIRE 1040 -6992 1040 -7056
WIRE 1040 -6992 960 -6992
WIRE 224 -6976 224 -6992
WIRE 304 -6912 224 -6912
WIRE 384 -6912 304 -6912
WIRE 464 -6912 384 -6912
WIRE 544 -6912 464 -6912
WIRE 624 -6912 544 -6912
WIRE 720 -6912 624 -6912
WIRE 800 -6912 720 -6912
WIRE 880 -6912 800 -6912
WIRE 960 -6912 880 -6912
WIRE 1040 -6912 960 -6912
WIRE 224 -6864 224 -6912
WIRE 304 -6864 224 -6864
WIRE 384 -6864 304 -6864
WIRE 464 -6864 384 -6864
WIRE 544 -6864 464 -6864
WIRE 640 -6864 544 -6864
WIRE 720 -6864 640 -6864
WIRE 800 -6864 720 -6864
WIRE 880 -6864 800 -6864
WIRE 960 -6864 880 -6864
WIRE 1040 -6864 960 -6864
WIRE 304 -6784 224 -6784
WIRE 384 -6784 304 -6784
WIRE 464 -6784 384 -6784
WIRE 544 -6784 464 -6784
WIRE 640 -6784 544 -6784
WIRE 720 -6784 640 -6784
WIRE 800 -6784 720 -6784
WIRE 880 -6784 800 -6784
WIRE 960 -6784 880 -6784
WIRE 1040 -6784 1040 -6800
WIRE 1040 -6784 960 -6784
WIRE 224 -6720 224 -6784
WIRE 304 -6720 224 -6720
WIRE 384 -6720 304 -6720
WIRE 464 -6720 384 -6720
WIRE 544 -6720 464 -6720
WIRE 624 -6720 544 -6720
WIRE 720 -6720 624 -6720
WIRE 800 -6720 720 -6720
WIRE 880 -6720 800 -6720
WIRE 960 -6720 880 -6720
WIRE 1040 -6720 1040 -6784
WIRE 1040 -6720 960 -6720
WIRE 224 -6704 224 -6720
WIRE 304 -6640 224 -6640
WIRE 384 -6640 304 -6640
WIRE 464 -6640 384 -6640
WIRE 544 -6640 464 -6640
WIRE 624 -6640 544 -6640
WIRE 720 -6640 624 -6640
WIRE 800 -6640 720 -6640
WIRE 880 -6640 800 -6640
WIRE 960 -6640 880 -6640
WIRE 1040 -6640 960 -6640
WIRE 224 -6592 224 -6640
WIRE 304 -6592 224 -6592
WIRE 384 -6592 304 -6592
WIRE 464 -6592 384 -6592
WIRE 544 -6592 464 -6592
WIRE 640 -6592 544 -6592
WIRE 720 -6592 640 -6592
WIRE 800 -6592 720 -6592
WIRE 880 -6592 800 -6592
WIRE 960 -6592 880 -6592
WIRE 1040 -6592 960 -6592
WIRE 304 -6512 224 -6512
WIRE 384 -6512 304 -6512
WIRE 464 -6512 384 -6512
WIRE 544 -6512 464 -6512
WIRE 640 -6512 544 -6512
WIRE 720 -6512 640 -6512
WIRE 800 -6512 720 -6512
WIRE 880 -6512 800 -6512
WIRE 960 -6512 880 -6512
WIRE 1040 -6512 1040 -6528
WIRE 1040 -6512 960 -6512
WIRE 224 -6448 224 -6512
WIRE 304 -6448 224 -6448
WIRE 384 -6448 304 -6448
WIRE 464 -6448 384 -6448
WIRE 544 -6448 464 -6448
WIRE 624 -6448 544 -6448
WIRE 720 -6448 624 -6448
WIRE 800 -6448 720 -6448
WIRE 880 -6448 800 -6448
WIRE 960 -6448 880 -6448
WIRE 1040 -6448 1040 -6512
WIRE 1040 -6448 960 -6448
WIRE 224 -6432 224 -6448
WIRE 304 -6368 224 -6368
WIRE 384 -6368 304 -6368
WIRE 464 -6368 384 -6368
WIRE 544 -6368 464 -6368
WIRE 624 -6368 544 -6368
WIRE 720 -6368 624 -6368
WIRE 800 -6368 720 -6368
WIRE 880 -6368 800 -6368
WIRE 960 -6368 880 -6368
WIRE 1040 -6368 960 -6368
WIRE 224 -6320 224 -6368
WIRE 304 -6320 224 -6320
WIRE 384 -6320 304 -6320
WIRE 464 -6320 384 -6320
WIRE 544 -6320 464 -6320
WIRE 640 -6320 544 -6320
WIRE 720 -6320 640 -6320
WIRE 800 -6320 720 -6320
WIRE 880 -6320 800 -6320
WIRE 960 -6320 880 -6320
WIRE 1040 -6320 960 -6320
WIRE 304 -6240 224 -6240
WIRE 384 -6240 304 -6240
WIRE 464 -6240 384 -6240
WIRE 544 -6240 464 -6240
WIRE 640 -6240 544 -6240
WIRE 720 -6240 640 -6240
WIRE 800 -6240 720 -6240
WIRE 880 -6240 800 -6240
WIRE 960 -6240 880 -6240
WIRE 1040 -6240 1040 -6256
WIRE 1040 -6240 960 -6240
WIRE 224 -6176 224 -6240
WIRE 304 -6176 224 -6176
WIRE 384 -6176 304 -6176
WIRE 464 -6176 384 -6176
WIRE 544 -6176 464 -6176
WIRE 624 -6176 544 -6176
WIRE 720 -6176 624 -6176
WIRE 800 -6176 720 -6176
WIRE 880 -6176 800 -6176
WIRE 960 -6176 880 -6176
WIRE 1040 -6176 1040 -6240
WIRE 1040 -6176 960 -6176
WIRE 224 -6160 224 -6176
WIRE 304 -6096 224 -6096
WIRE 384 -6096 304 -6096
WIRE 464 -6096 384 -6096
WIRE 544 -6096 464 -6096
WIRE 624 -6096 544 -6096
WIRE 720 -6096 624 -6096
WIRE 800 -6096 720 -6096
WIRE 880 -6096 800 -6096
WIRE 960 -6096 880 -6096
WIRE 1040 -6096 960 -6096
WIRE 224 -6048 224 -6096
WIRE 304 -6048 224 -6048
WIRE 384 -6048 304 -6048
WIRE 464 -6048 384 -6048
WIRE 544 -6048 464 -6048
WIRE 640 -6048 544 -6048
WIRE 720 -6048 640 -6048
WIRE 800 -6048 720 -6048
WIRE 880 -6048 800 -6048
WIRE 960 -6048 880 -6048
WIRE 1040 -6048 960 -6048
WIRE 304 -5968 224 -5968
WIRE 384 -5968 304 -5968
WIRE 464 -5968 384 -5968
WIRE 544 -5968 464 -5968
WIRE 640 -5968 544 -5968
WIRE 720 -5968 640 -5968
WIRE 800 -5968 720 -5968
WIRE 880 -5968 800 -5968
WIRE 960 -5968 880 -5968
WIRE 1040 -5968 1040 -5984
WIRE 1040 -5968 960 -5968
WIRE 224 -5904 224 -5968
WIRE 304 -5904 224 -5904
WIRE 384 -5904 304 -5904
WIRE 464 -5904 384 -5904
WIRE 544 -5904 464 -5904
WIRE 624 -5904 544 -5904
WIRE 720 -5904 624 -5904
WIRE 800 -5904 720 -5904
WIRE 880 -5904 800 -5904
WIRE 960 -5904 880 -5904
WIRE 1040 -5904 1040 -5968
WIRE 1040 -5904 960 -5904
WIRE 224 -5888 224 -5904
WIRE 304 -5824 224 -5824
WIRE 384 -5824 304 -5824
WIRE 464 -5824 384 -5824
WIRE 544 -5824 464 -5824
WIRE 624 -5824 544 -5824
WIRE 720 -5824 624 -5824
WIRE 800 -5824 720 -5824
WIRE 880 -5824 800 -5824
WIRE 960 -5824 880 -5824
WIRE 1040 -5824 960 -5824
WIRE 224 -5776 224 -5824
WIRE 304 -5776 224 -5776
WIRE 384 -5776 304 -5776
WIRE 464 -5776 384 -5776
WIRE 544 -5776 464 -5776
WIRE 640 -5776 544 -5776
WIRE 720 -5776 640 -5776
WIRE 800 -5776 720 -5776
WIRE 880 -5776 800 -5776
WIRE 960 -5776 880 -5776
WIRE 1040 -5776 960 -5776
WIRE 304 -5696 224 -5696
WIRE 384 -5696 304 -5696
WIRE 464 -5696 384 -5696
WIRE 544 -5696 464 -5696
WIRE 640 -5696 544 -5696
WIRE 720 -5696 640 -5696
WIRE 800 -5696 720 -5696
WIRE 880 -5696 800 -5696
WIRE 960 -5696 880 -5696
WIRE 1040 -5696 1040 -5712
WIRE 1040 -5696 960 -5696
WIRE 224 -5632 224 -5696
WIRE 304 -5632 224 -5632
WIRE 384 -5632 304 -5632
WIRE 464 -5632 384 -5632
WIRE 544 -5632 464 -5632
WIRE 624 -5632 544 -5632
WIRE 720 -5632 624 -5632
WIRE 800 -5632 720 -5632
WIRE 880 -5632 800 -5632
WIRE 960 -5632 880 -5632
WIRE 1040 -5632 1040 -5696
WIRE 1040 -5632 960 -5632
WIRE 224 -5616 224 -5632
WIRE 304 -5552 224 -5552
WIRE 384 -5552 304 -5552
WIRE 464 -5552 384 -5552
WIRE 544 -5552 464 -5552
WIRE 624 -5552 544 -5552
WIRE 720 -5552 624 -5552
WIRE 800 -5552 720 -5552
WIRE 880 -5552 800 -5552
WIRE 960 -5552 880 -5552
WIRE 1040 -5552 960 -5552
WIRE 224 -5504 224 -5552
WIRE 304 -5504 224 -5504
WIRE 384 -5504 304 -5504
WIRE 464 -5504 384 -5504
WIRE 544 -5504 464 -5504
WIRE 640 -5504 544 -5504
WIRE 720 -5504 640 -5504
WIRE 800 -5504 720 -5504
WIRE 880 -5504 800 -5504
WIRE 960 -5504 880 -5504
WIRE 1040 -5504 960 -5504
WIRE 304 -5424 224 -5424
WIRE 384 -5424 304 -5424
WIRE 464 -5424 384 -5424
WIRE 544 -5424 464 -5424
WIRE 640 -5424 544 -5424
WIRE 720 -5424 640 -5424
WIRE 800 -5424 720 -5424
WIRE 880 -5424 800 -5424
WIRE 960 -5424 880 -5424
WIRE 1040 -5424 1040 -5440
WIRE 1040 -5424 960 -5424
WIRE 224 -5360 224 -5424
WIRE 304 -5360 224 -5360
WIRE 384 -5360 304 -5360
WIRE 464 -5360 384 -5360
WIRE 544 -5360 464 -5360
WIRE 624 -5360 544 -5360
WIRE 720 -5360 624 -5360
WIRE 800 -5360 720 -5360
WIRE 880 -5360 800 -5360
WIRE 960 -5360 880 -5360
WIRE 1040 -5360 1040 -5424
WIRE 1040 -5360 960 -5360
WIRE 224 -5344 224 -5360
WIRE 304 -5280 224 -5280
WIRE 384 -5280 304 -5280
WIRE 464 -5280 384 -5280
WIRE 544 -5280 464 -5280
WIRE 624 -5280 544 -5280
WIRE 720 -5280 624 -5280
WIRE 800 -5280 720 -5280
WIRE 880 -5280 800 -5280
WIRE 960 -5280 880 -5280
WIRE 1040 -5280 960 -5280
WIRE 224 -5232 224 -5280
WIRE 304 -5232 224 -5232
WIRE 384 -5232 304 -5232
WIRE 464 -5232 384 -5232
WIRE 544 -5232 464 -5232
WIRE 640 -5232 544 -5232
WIRE 720 -5232 640 -5232
WIRE 800 -5232 720 -5232
WIRE 880 -5232 800 -5232
WIRE 960 -5232 880 -5232
WIRE 1040 -5232 960 -5232
WIRE 304 -5152 224 -5152
WIRE 384 -5152 304 -5152
WIRE 464 -5152 384 -5152
WIRE 544 -5152 464 -5152
WIRE 640 -5152 544 -5152
WIRE 720 -5152 640 -5152
WIRE 800 -5152 720 -5152
WIRE 880 -5152 800 -5152
WIRE 960 -5152 880 -5152
WIRE 1040 -5152 1040 -5168
WIRE 1040 -5152 960 -5152
WIRE 224 -5088 224 -5152
WIRE 304 -5088 224 -5088
WIRE 384 -5088 304 -5088
WIRE 464 -5088 384 -5088
WIRE 544 -5088 464 -5088
WIRE 624 -5088 544 -5088
WIRE 720 -5088 624 -5088
WIRE 800 -5088 720 -5088
WIRE 880 -5088 800 -5088
WIRE 960 -5088 880 -5088
WIRE 1040 -5088 1040 -5152
WIRE 1040 -5088 960 -5088
WIRE 224 -5072 224 -5088
WIRE 304 -5008 224 -5008
WIRE 384 -5008 304 -5008
WIRE 464 -5008 384 -5008
WIRE 544 -5008 464 -5008
WIRE 624 -5008 544 -5008
WIRE 720 -5008 624 -5008
WIRE 800 -5008 720 -5008
WIRE 880 -5008 800 -5008
WIRE 960 -5008 880 -5008
WIRE 1040 -5008 960 -5008
WIRE 224 -4960 224 -5008
WIRE 304 -4960 224 -4960
WIRE 384 -4960 304 -4960
WIRE 464 -4960 384 -4960
WIRE 544 -4960 464 -4960
WIRE 640 -4960 544 -4960
WIRE 720 -4960 640 -4960
WIRE 800 -4960 720 -4960
WIRE 880 -4960 800 -4960
WIRE 960 -4960 880 -4960
WIRE 1040 -4960 960 -4960
WIRE 304 -4880 224 -4880
WIRE 384 -4880 304 -4880
WIRE 464 -4880 384 -4880
WIRE 544 -4880 464 -4880
WIRE 640 -4880 544 -4880
WIRE 720 -4880 640 -4880
WIRE 800 -4880 720 -4880
WIRE 880 -4880 800 -4880
WIRE 960 -4880 880 -4880
WIRE 1040 -4880 1040 -4896
WIRE 1040 -4880 960 -4880
WIRE 224 -4816 224 -4880
WIRE 304 -4816 224 -4816
WIRE 384 -4816 304 -4816
WIRE 464 -4816 384 -4816
WIRE 544 -4816 464 -4816
WIRE 624 -4816 544 -4816
WIRE 720 -4816 624 -4816
WIRE 800 -4816 720 -4816
WIRE 880 -4816 800 -4816
WIRE 960 -4816 880 -4816
WIRE 1040 -4816 1040 -4880
WIRE 1040 -4816 960 -4816
WIRE 224 -4800 224 -4816
WIRE 304 -4736 224 -4736
WIRE 384 -4736 304 -4736
WIRE 464 -4736 384 -4736
WIRE 544 -4736 464 -4736
WIRE 624 -4736 544 -4736
WIRE 720 -4736 624 -4736
WIRE 800 -4736 720 -4736
WIRE 880 -4736 800 -4736
WIRE 960 -4736 880 -4736
WIRE 1040 -4736 960 -4736
WIRE 224 -4688 224 -4736
WIRE 304 -4688 224 -4688
WIRE 384 -4688 304 -4688
WIRE 464 -4688 384 -4688
WIRE 544 -4688 464 -4688
WIRE 640 -4688 544 -4688
WIRE 720 -4688 640 -4688
WIRE 800 -4688 720 -4688
WIRE 880 -4688 800 -4688
WIRE 960 -4688 880 -4688
WIRE 1040 -4688 960 -4688
WIRE 304 -4608 224 -4608
WIRE 384 -4608 304 -4608
WIRE 464 -4608 384 -4608
WIRE 544 -4608 464 -4608
WIRE 640 -4608 544 -4608
WIRE 720 -4608 640 -4608
WIRE 800 -4608 720 -4608
WIRE 880 -4608 800 -4608
WIRE 960 -4608 880 -4608
WIRE 1040 -4608 1040 -4624
WIRE 1040 -4608 960 -4608
WIRE 224 -4544 224 -4608
WIRE 304 -4544 224 -4544
WIRE 384 -4544 304 -4544
WIRE 464 -4544 384 -4544
WIRE 544 -4544 464 -4544
WIRE 624 -4544 544 -4544
WIRE 720 -4544 624 -4544
WIRE 800 -4544 720 -4544
WIRE 880 -4544 800 -4544
WIRE 960 -4544 880 -4544
WIRE 1040 -4544 1040 -4608
WIRE 1040 -4544 960 -4544
WIRE 224 -4528 224 -4544
WIRE 304 -4464 224 -4464
WIRE 384 -4464 304 -4464
WIRE 464 -4464 384 -4464
WIRE 544 -4464 464 -4464
WIRE 624 -4464 544 -4464
WIRE 720 -4464 624 -4464
WIRE 800 -4464 720 -4464
WIRE 880 -4464 800 -4464
WIRE 960 -4464 880 -4464
WIRE 1040 -4464 960 -4464
WIRE 224 -4416 224 -4464
WIRE 304 -4416 224 -4416
WIRE 384 -4416 304 -4416
WIRE 464 -4416 384 -4416
WIRE 544 -4416 464 -4416
WIRE 640 -4416 544 -4416
WIRE 720 -4416 640 -4416
WIRE 800 -4416 720 -4416
WIRE 880 -4416 800 -4416
WIRE 960 -4416 880 -4416
WIRE 1040 -4416 960 -4416
WIRE 304 -4336 224 -4336
WIRE 384 -4336 304 -4336
WIRE 464 -4336 384 -4336
WIRE 544 -4336 464 -4336
WIRE 640 -4336 544 -4336
WIRE 720 -4336 640 -4336
WIRE 800 -4336 720 -4336
WIRE 880 -4336 800 -4336
WIRE 960 -4336 880 -4336
WIRE 1040 -4336 1040 -4352
WIRE 1040 -4336 960 -4336
WIRE 224 -4272 224 -4336
WIRE 304 -4272 224 -4272
WIRE 384 -4272 304 -4272
WIRE 464 -4272 384 -4272
WIRE 544 -4272 464 -4272
WIRE 624 -4272 544 -4272
WIRE 720 -4272 624 -4272
WIRE 800 -4272 720 -4272
WIRE 880 -4272 800 -4272
WIRE 960 -4272 880 -4272
WIRE 1040 -4272 1040 -4336
WIRE 1040 -4272 960 -4272
WIRE 224 -4256 224 -4272
WIRE 304 -4192 224 -4192
WIRE 384 -4192 304 -4192
WIRE 464 -4192 384 -4192
WIRE 544 -4192 464 -4192
WIRE 624 -4192 544 -4192
WIRE 720 -4192 624 -4192
WIRE 800 -4192 720 -4192
WIRE 880 -4192 800 -4192
WIRE 960 -4192 880 -4192
WIRE 1040 -4192 960 -4192
WIRE 224 -4144 224 -4192
WIRE 304 -4144 224 -4144
WIRE 384 -4144 304 -4144
WIRE 464 -4144 384 -4144
WIRE 544 -4144 464 -4144
WIRE 640 -4144 544 -4144
WIRE 720 -4144 640 -4144
WIRE 800 -4144 720 -4144
WIRE 880 -4144 800 -4144
WIRE 960 -4144 880 -4144
WIRE 1040 -4144 960 -4144
WIRE 304 -4064 224 -4064
WIRE 384 -4064 304 -4064
WIRE 464 -4064 384 -4064
WIRE 544 -4064 464 -4064
WIRE 640 -4064 544 -4064
WIRE 720 -4064 640 -4064
WIRE 800 -4064 720 -4064
WIRE 880 -4064 800 -4064
WIRE 960 -4064 880 -4064
WIRE 1040 -4064 1040 -4080
WIRE 1040 -4064 960 -4064
WIRE 224 -4000 224 -4064
WIRE 304 -4000 224 -4000
WIRE 384 -4000 304 -4000
WIRE 464 -4000 384 -4000
WIRE 544 -4000 464 -4000
WIRE 624 -4000 544 -4000
WIRE 720 -4000 624 -4000
WIRE 800 -4000 720 -4000
WIRE 880 -4000 800 -4000
WIRE 960 -4000 880 -4000
WIRE 1040 -4000 1040 -4064
WIRE 1040 -4000 960 -4000
WIRE 224 -3984 224 -4000
WIRE 304 -3920 224 -3920
WIRE 384 -3920 304 -3920
WIRE 464 -3920 384 -3920
WIRE 544 -3920 464 -3920
WIRE 624 -3920 544 -3920
WIRE 720 -3920 624 -3920
WIRE 800 -3920 720 -3920
WIRE 880 -3920 800 -3920
WIRE 960 -3920 880 -3920
WIRE 1040 -3920 960 -3920
WIRE 224 -3840 224 -3920
WIRE 304 -3840 224 -3840
WIRE 384 -3840 304 -3840
WIRE 464 -3840 384 -3840
WIRE 544 -3840 464 -3840
WIRE 640 -3840 544 -3840
WIRE 720 -3840 640 -3840
WIRE 800 -3840 720 -3840
WIRE 880 -3840 800 -3840
WIRE 960 -3840 880 -3840
WIRE 1040 -3840 960 -3840
WIRE 304 -3760 224 -3760
WIRE 384 -3760 304 -3760
WIRE 464 -3760 384 -3760
WIRE 544 -3760 464 -3760
WIRE 640 -3760 544 -3760
WIRE 720 -3760 640 -3760
WIRE 800 -3760 720 -3760
WIRE 880 -3760 800 -3760
WIRE 960 -3760 880 -3760
WIRE 1040 -3760 1040 -3776
WIRE 1040 -3760 960 -3760
WIRE 224 -3696 224 -3760
WIRE 304 -3696 224 -3696
WIRE 384 -3696 304 -3696
WIRE 464 -3696 384 -3696
WIRE 544 -3696 464 -3696
WIRE 624 -3696 544 -3696
WIRE 720 -3696 624 -3696
WIRE 800 -3696 720 -3696
WIRE 880 -3696 800 -3696
WIRE 960 -3696 880 -3696
WIRE 1040 -3696 1040 -3760
WIRE 1040 -3696 960 -3696
WIRE 224 -3680 224 -3696
WIRE 304 -3616 224 -3616
WIRE 384 -3616 304 -3616
WIRE 464 -3616 384 -3616
WIRE 544 -3616 464 -3616
WIRE 624 -3616 544 -3616
WIRE 720 -3616 624 -3616
WIRE 800 -3616 720 -3616
WIRE 880 -3616 800 -3616
WIRE 960 -3616 880 -3616
WIRE 1040 -3616 960 -3616
WIRE 224 -3568 224 -3616
WIRE 304 -3568 224 -3568
WIRE 384 -3568 304 -3568
WIRE 464 -3568 384 -3568
WIRE 544 -3568 464 -3568
WIRE 640 -3568 544 -3568
WIRE 720 -3568 640 -3568
WIRE 800 -3568 720 -3568
WIRE 880 -3568 800 -3568
WIRE 960 -3568 880 -3568
WIRE 1040 -3568 960 -3568
WIRE 304 -3488 224 -3488
WIRE 384 -3488 304 -3488
WIRE 464 -3488 384 -3488
WIRE 544 -3488 464 -3488
WIRE 640 -3488 544 -3488
WIRE 720 -3488 640 -3488
WIRE 800 -3488 720 -3488
WIRE 880 -3488 800 -3488
WIRE 960 -3488 880 -3488
WIRE 1040 -3488 1040 -3504
WIRE 1040 -3488 960 -3488
WIRE 224 -3424 224 -3488
WIRE 304 -3424 224 -3424
WIRE 384 -3424 304 -3424
WIRE 464 -3424 384 -3424
WIRE 544 -3424 464 -3424
WIRE 624 -3424 544 -3424
WIRE 720 -3424 624 -3424
WIRE 800 -3424 720 -3424
WIRE 880 -3424 800 -3424
WIRE 960 -3424 880 -3424
WIRE 1040 -3424 1040 -3488
WIRE 1040 -3424 960 -3424
WIRE 224 -3408 224 -3424
WIRE 304 -3344 224 -3344
WIRE 384 -3344 304 -3344
WIRE 464 -3344 384 -3344
WIRE 544 -3344 464 -3344
WIRE 624 -3344 544 -3344
WIRE 720 -3344 624 -3344
WIRE 800 -3344 720 -3344
WIRE 880 -3344 800 -3344
WIRE 960 -3344 880 -3344
WIRE 1040 -3344 960 -3344
WIRE 224 -3296 224 -3344
WIRE 304 -3296 224 -3296
WIRE 384 -3296 304 -3296
WIRE 464 -3296 384 -3296
WIRE 544 -3296 464 -3296
WIRE 640 -3296 544 -3296
WIRE 720 -3296 640 -3296
WIRE 800 -3296 720 -3296
WIRE 880 -3296 800 -3296
WIRE 960 -3296 880 -3296
WIRE 1040 -3296 960 -3296
WIRE 304 -3216 224 -3216
WIRE 384 -3216 304 -3216
WIRE 464 -3216 384 -3216
WIRE 544 -3216 464 -3216
WIRE 640 -3216 544 -3216
WIRE 720 -3216 640 -3216
WIRE 800 -3216 720 -3216
WIRE 880 -3216 800 -3216
WIRE 960 -3216 880 -3216
WIRE 1040 -3216 1040 -3232
WIRE 1040 -3216 960 -3216
WIRE 224 -3152 224 -3216
WIRE 304 -3152 224 -3152
WIRE 384 -3152 304 -3152
WIRE 464 -3152 384 -3152
WIRE 544 -3152 464 -3152
WIRE 624 -3152 544 -3152
WIRE 720 -3152 624 -3152
WIRE 800 -3152 720 -3152
WIRE 880 -3152 800 -3152
WIRE 960 -3152 880 -3152
WIRE 1040 -3152 1040 -3216
WIRE 1040 -3152 960 -3152
WIRE 224 -3136 224 -3152
WIRE 304 -3072 224 -3072
WIRE 384 -3072 304 -3072
WIRE 464 -3072 384 -3072
WIRE 544 -3072 464 -3072
WIRE 624 -3072 544 -3072
WIRE 720 -3072 624 -3072
WIRE 800 -3072 720 -3072
WIRE 880 -3072 800 -3072
WIRE 960 -3072 880 -3072
WIRE 1040 -3072 960 -3072
WIRE 224 -3024 224 -3072
WIRE 304 -3024 224 -3024
WIRE 384 -3024 304 -3024
WIRE 464 -3024 384 -3024
WIRE 544 -3024 464 -3024
WIRE 640 -3024 544 -3024
WIRE 720 -3024 640 -3024
WIRE 800 -3024 720 -3024
WIRE 880 -3024 800 -3024
WIRE 960 -3024 880 -3024
WIRE 1040 -3024 960 -3024
WIRE 304 -2944 224 -2944
WIRE 384 -2944 304 -2944
WIRE 464 -2944 384 -2944
WIRE 544 -2944 464 -2944
WIRE 640 -2944 544 -2944
WIRE 720 -2944 640 -2944
WIRE 800 -2944 720 -2944
WIRE 880 -2944 800 -2944
WIRE 960 -2944 880 -2944
WIRE 1040 -2944 1040 -2960
WIRE 1040 -2944 960 -2944
WIRE 224 -2880 224 -2944
WIRE 304 -2880 224 -2880
WIRE 384 -2880 304 -2880
WIRE 464 -2880 384 -2880
WIRE 544 -2880 464 -2880
WIRE 624 -2880 544 -2880
WIRE 720 -2880 624 -2880
WIRE 800 -2880 720 -2880
WIRE 880 -2880 800 -2880
WIRE 960 -2880 880 -2880
WIRE 1040 -2880 1040 -2944
WIRE 1040 -2880 960 -2880
WIRE 224 -2864 224 -2880
WIRE 304 -2800 224 -2800
WIRE 384 -2800 304 -2800
WIRE 464 -2800 384 -2800
WIRE 544 -2800 464 -2800
WIRE 624 -2800 544 -2800
WIRE 720 -2800 624 -2800
WIRE 800 -2800 720 -2800
WIRE 880 -2800 800 -2800
WIRE 960 -2800 880 -2800
WIRE 1040 -2800 960 -2800
WIRE 224 -2752 224 -2800
WIRE 304 -2752 224 -2752
WIRE 384 -2752 304 -2752
WIRE 464 -2752 384 -2752
WIRE 544 -2752 464 -2752
WIRE 640 -2752 544 -2752
WIRE 720 -2752 640 -2752
WIRE 800 -2752 720 -2752
WIRE 880 -2752 800 -2752
WIRE 960 -2752 880 -2752
WIRE 1040 -2752 960 -2752
WIRE 304 -2672 224 -2672
WIRE 384 -2672 304 -2672
WIRE 464 -2672 384 -2672
WIRE 544 -2672 464 -2672
WIRE 640 -2672 544 -2672
WIRE 720 -2672 640 -2672
WIRE 800 -2672 720 -2672
WIRE 880 -2672 800 -2672
WIRE 960 -2672 880 -2672
WIRE 1040 -2672 1040 -2688
WIRE 1040 -2672 960 -2672
WIRE 224 -2608 224 -2672
WIRE 304 -2608 224 -2608
WIRE 384 -2608 304 -2608
WIRE 464 -2608 384 -2608
WIRE 544 -2608 464 -2608
WIRE 624 -2608 544 -2608
WIRE 720 -2608 624 -2608
WIRE 800 -2608 720 -2608
WIRE 880 -2608 800 -2608
WIRE 960 -2608 880 -2608
WIRE 1040 -2608 1040 -2672
WIRE 1040 -2608 960 -2608
WIRE 224 -2592 224 -2608
WIRE 304 -2528 224 -2528
WIRE 384 -2528 304 -2528
WIRE 464 -2528 384 -2528
WIRE 544 -2528 464 -2528
WIRE 624 -2528 544 -2528
WIRE 720 -2528 624 -2528
WIRE 800 -2528 720 -2528
WIRE 880 -2528 800 -2528
WIRE 960 -2528 880 -2528
WIRE 1040 -2528 960 -2528
WIRE 224 -2480 224 -2528
WIRE 304 -2480 224 -2480
WIRE 384 -2480 304 -2480
WIRE 464 -2480 384 -2480
WIRE 544 -2480 464 -2480
WIRE 640 -2480 544 -2480
WIRE 720 -2480 640 -2480
WIRE 800 -2480 720 -2480
WIRE 880 -2480 800 -2480
WIRE 960 -2480 880 -2480
WIRE 1040 -2480 960 -2480
WIRE 304 -2400 224 -2400
WIRE 384 -2400 304 -2400
WIRE 464 -2400 384 -2400
WIRE 544 -2400 464 -2400
WIRE 640 -2400 544 -2400
WIRE 720 -2400 640 -2400
WIRE 800 -2400 720 -2400
WIRE 880 -2400 800 -2400
WIRE 960 -2400 880 -2400
WIRE 1040 -2400 1040 -2416
WIRE 1040 -2400 960 -2400
WIRE 224 -2336 224 -2400
WIRE 304 -2336 224 -2336
WIRE 384 -2336 304 -2336
WIRE 464 -2336 384 -2336
WIRE 544 -2336 464 -2336
WIRE 624 -2336 544 -2336
WIRE 720 -2336 624 -2336
WIRE 800 -2336 720 -2336
WIRE 880 -2336 800 -2336
WIRE 960 -2336 880 -2336
WIRE 1040 -2336 1040 -2400
WIRE 1040 -2336 960 -2336
WIRE 224 -2320 224 -2336
WIRE 304 -2256 224 -2256
WIRE 384 -2256 304 -2256
WIRE 464 -2256 384 -2256
WIRE 544 -2256 464 -2256
WIRE 624 -2256 544 -2256
WIRE 720 -2256 624 -2256
WIRE 800 -2256 720 -2256
WIRE 880 -2256 800 -2256
WIRE 960 -2256 880 -2256
WIRE 1040 -2256 960 -2256
WIRE 224 -2208 224 -2256
WIRE 304 -2208 224 -2208
WIRE 384 -2208 304 -2208
WIRE 464 -2208 384 -2208
WIRE 544 -2208 464 -2208
WIRE 640 -2208 544 -2208
WIRE 720 -2208 640 -2208
WIRE 800 -2208 720 -2208
WIRE 880 -2208 800 -2208
WIRE 960 -2208 880 -2208
WIRE 1040 -2208 960 -2208
WIRE 304 -2128 224 -2128
WIRE 384 -2128 304 -2128
WIRE 464 -2128 384 -2128
WIRE 544 -2128 464 -2128
WIRE 640 -2128 544 -2128
WIRE 720 -2128 640 -2128
WIRE 800 -2128 720 -2128
WIRE 880 -2128 800 -2128
WIRE 960 -2128 880 -2128
WIRE 1040 -2128 1040 -2144
WIRE 1040 -2128 960 -2128
WIRE 224 -2064 224 -2128
WIRE 304 -2064 224 -2064
WIRE 384 -2064 304 -2064
WIRE 464 -2064 384 -2064
WIRE 544 -2064 464 -2064
WIRE 624 -2064 544 -2064
WIRE 720 -2064 624 -2064
WIRE 800 -2064 720 -2064
WIRE 880 -2064 800 -2064
WIRE 960 -2064 880 -2064
WIRE 1040 -2064 1040 -2128
WIRE 1040 -2064 960 -2064
WIRE 224 -2048 224 -2064
WIRE 304 -1984 224 -1984
WIRE 384 -1984 304 -1984
WIRE 464 -1984 384 -1984
WIRE 544 -1984 464 -1984
WIRE 624 -1984 544 -1984
WIRE 720 -1984 624 -1984
WIRE 800 -1984 720 -1984
WIRE 880 -1984 800 -1984
WIRE 960 -1984 880 -1984
WIRE 1040 -1984 960 -1984
WIRE 224 -1936 224 -1984
WIRE 304 -1936 224 -1936
WIRE 384 -1936 304 -1936
WIRE 464 -1936 384 -1936
WIRE 544 -1936 464 -1936
WIRE 640 -1936 544 -1936
WIRE 720 -1936 640 -1936
WIRE 800 -1936 720 -1936
WIRE 880 -1936 800 -1936
WIRE 960 -1936 880 -1936
WIRE 1040 -1936 960 -1936
WIRE 304 -1856 224 -1856
WIRE 384 -1856 304 -1856
WIRE 464 -1856 384 -1856
WIRE 544 -1856 464 -1856
WIRE 640 -1856 544 -1856
WIRE 720 -1856 640 -1856
WIRE 800 -1856 720 -1856
WIRE 880 -1856 800 -1856
WIRE 960 -1856 880 -1856
WIRE 1040 -1856 1040 -1872
WIRE 1040 -1856 960 -1856
WIRE 224 -1792 224 -1856
WIRE 304 -1792 224 -1792
WIRE 384 -1792 304 -1792
WIRE 464 -1792 384 -1792
WIRE 544 -1792 464 -1792
WIRE 624 -1792 544 -1792
WIRE 720 -1792 624 -1792
WIRE 800 -1792 720 -1792
WIRE 880 -1792 800 -1792
WIRE 960 -1792 880 -1792
WIRE 1040 -1792 1040 -1856
WIRE 1040 -1792 960 -1792
WIRE 224 -1776 224 -1792
WIRE 304 -1712 224 -1712
WIRE 384 -1712 304 -1712
WIRE 464 -1712 384 -1712
WIRE 544 -1712 464 -1712
WIRE 624 -1712 544 -1712
WIRE 720 -1712 624 -1712
WIRE 800 -1712 720 -1712
WIRE 880 -1712 800 -1712
WIRE 960 -1712 880 -1712
WIRE 1040 -1712 960 -1712
WIRE 224 -1664 224 -1712
WIRE 304 -1664 224 -1664
WIRE 384 -1664 304 -1664
WIRE 464 -1664 384 -1664
WIRE 544 -1664 464 -1664
WIRE 640 -1664 544 -1664
WIRE 720 -1664 640 -1664
WIRE 800 -1664 720 -1664
WIRE 880 -1664 800 -1664
WIRE 960 -1664 880 -1664
WIRE 1040 -1664 960 -1664
WIRE 304 -1584 224 -1584
WIRE 384 -1584 304 -1584
WIRE 464 -1584 384 -1584
WIRE 544 -1584 464 -1584
WIRE 640 -1584 544 -1584
WIRE 720 -1584 640 -1584
WIRE 800 -1584 720 -1584
WIRE 880 -1584 800 -1584
WIRE 960 -1584 880 -1584
WIRE 1040 -1584 1040 -1600
WIRE 1040 -1584 960 -1584
WIRE 224 -1520 224 -1584
WIRE 304 -1520 224 -1520
WIRE 384 -1520 304 -1520
WIRE 464 -1520 384 -1520
WIRE 544 -1520 464 -1520
WIRE 624 -1520 544 -1520
WIRE 720 -1520 624 -1520
WIRE 800 -1520 720 -1520
WIRE 880 -1520 800 -1520
WIRE 960 -1520 880 -1520
WIRE 1040 -1520 1040 -1584
WIRE 1040 -1520 960 -1520
WIRE 224 -1504 224 -1520
WIRE 304 -1440 224 -1440
WIRE 384 -1440 304 -1440
WIRE 464 -1440 384 -1440
WIRE 544 -1440 464 -1440
WIRE 624 -1440 544 -1440
WIRE 720 -1440 624 -1440
WIRE 800 -1440 720 -1440
WIRE 880 -1440 800 -1440
WIRE 960 -1440 880 -1440
WIRE 1040 -1440 960 -1440
WIRE 224 -1392 224 -1440
WIRE 304 -1392 224 -1392
WIRE 384 -1392 304 -1392
WIRE 464 -1392 384 -1392
WIRE 544 -1392 464 -1392
WIRE 640 -1392 544 -1392
WIRE 720 -1392 640 -1392
WIRE 800 -1392 720 -1392
WIRE 880 -1392 800 -1392
WIRE 960 -1392 880 -1392
WIRE 1040 -1392 960 -1392
WIRE 304 -1312 224 -1312
WIRE 384 -1312 304 -1312
WIRE 464 -1312 384 -1312
WIRE 544 -1312 464 -1312
WIRE 640 -1312 544 -1312
WIRE 720 -1312 640 -1312
WIRE 800 -1312 720 -1312
WIRE 880 -1312 800 -1312
WIRE 960 -1312 880 -1312
WIRE 1040 -1312 1040 -1328
WIRE 1040 -1312 960 -1312
WIRE 224 -1248 224 -1312
WIRE 304 -1248 224 -1248
WIRE 384 -1248 304 -1248
WIRE 464 -1248 384 -1248
WIRE 544 -1248 464 -1248
WIRE 624 -1248 544 -1248
WIRE 720 -1248 624 -1248
WIRE 800 -1248 720 -1248
WIRE 880 -1248 800 -1248
WIRE 960 -1248 880 -1248
WIRE 1040 -1248 1040 -1312
WIRE 1040 -1248 960 -1248
WIRE 224 -1232 224 -1248
WIRE 304 -1168 224 -1168
WIRE 384 -1168 304 -1168
WIRE 464 -1168 384 -1168
WIRE 544 -1168 464 -1168
WIRE 624 -1168 544 -1168
WIRE 720 -1168 624 -1168
WIRE 800 -1168 720 -1168
WIRE 880 -1168 800 -1168
WIRE 960 -1168 880 -1168
WIRE 1040 -1168 960 -1168
WIRE 224 -1120 224 -1168
WIRE 304 -1120 224 -1120
WIRE 384 -1120 304 -1120
WIRE 464 -1120 384 -1120
WIRE 544 -1120 464 -1120
WIRE 640 -1120 544 -1120
WIRE 720 -1120 640 -1120
WIRE 800 -1120 720 -1120
WIRE 880 -1120 800 -1120
WIRE 960 -1120 880 -1120
WIRE 1040 -1120 960 -1120
WIRE 304 -1040 224 -1040
WIRE 384 -1040 304 -1040
WIRE 464 -1040 384 -1040
WIRE 544 -1040 464 -1040
WIRE 640 -1040 544 -1040
WIRE 720 -1040 640 -1040
WIRE 800 -1040 720 -1040
WIRE 880 -1040 800 -1040
WIRE 960 -1040 880 -1040